TIMESTAMP = 1519316760
SHA256 (ls-dyna_smp_s_r920_x64_redhat59_ifort160.gz) = ee2611f5b6700c9d7ed2f804481210387a75a4c3122189dffd932cc4b5227f5b
SIZE (ls-dyna_smp_s_r920_x64_redhat59_ifort160.gz) = 61821859
SHA256 (ls-dyna_smp_d_r920_x64_redhat59_ifort160.gz) = 5c15ad80641011cba850742f2b6c01890f2669fb1de188b8da28d53dda297bb2
SIZE (ls-dyna_smp_d_r920_x64_redhat59_ifort160.gz) = 70731618
