TIMESTAMP = 1519309183
SHA256 (ls-dyna_smp_s_r1000_x64_redhat59_ifort160.gz) = 8f40e1819936977b7e5138b7f4cd39c98e1243301c4717e9eb7803ac5ba29f9b
SIZE (ls-dyna_smp_s_r1000_x64_redhat59_ifort160.gz) = 66688325
SHA256 (ls-dyna_smp_d_r1000_x64_redhat59_ifort160.gz) = 62cc5dbac7a0fef7b792f16d02cc6c57044816b7f5c0b6083e32a4fd166b7504
SIZE (ls-dyna_smp_d_r1000_x64_redhat59_ifort160.gz) = 78662009
